Version 4
SHEET 1 2548 1268
WIRE -768 -704 -800 -704
WIRE 144 -704 -768 -704
WIRE 144 -608 144 -704
WIRE -800 -576 -800 -704
WIRE -304 -576 -560 -576
WIRE -304 -544 -304 -576
WIRE -256 -544 -304 -544
WIRE -80 -528 -192 -528
WIRE 96 -528 -16 -528
WIRE -256 -512 -304 -512
WIRE -48 -448 -48 -512
WIRE 144 -448 144 -512
WIRE 144 -448 -48 -448
WIRE -304 -432 -304 -512
WIRE -304 -432 -400 -432
WIRE -800 -416 -800 -496
WIRE 144 -400 144 -448
WIRE 240 -400 144 -400
WIRE 368 -400 320 -400
WIRE 576 -400 448 -400
WIRE 672 -400 576 -400
WIRE 736 -400 672 -400
WIRE 832 -400 736 -400
WIRE 576 -368 576 -400
WIRE 144 -320 144 -400
WIRE 736 -320 736 -400
WIRE 576 -288 576 -304
WIRE 144 -160 144 -256
WIRE 576 -160 576 -208
WIRE 656 -160 576 -160
WIRE 736 -160 736 -240
WIRE 736 -160 656 -160
WIRE -800 -128 -800 -336
WIRE 656 -128 656 -160
WIRE 64 -48 16 -48
WIRE 224 -48 144 -48
WIRE 352 -48 288 -48
WIRE 352 32 352 -48
WIRE 432 32 352 32
WIRE 832 32 832 -400
WIRE 832 32 512 32
WIRE 352 80 352 32
WIRE 352 80 128 80
WIRE -560 96 -560 -576
WIRE -304 96 -560 96
WIRE -208 96 -240 96
WIRE 16 96 16 -48
WIRE 16 96 -208 96
WIRE 64 96 16 96
WIRE 288 112 128 112
WIRE 288 160 288 112
WIRE 288 272 288 240
FLAG -800 -128 0
FLAG 656 -128 0
FLAG 672 -400 out
FLAG 144 -160 0
FLAG -768 -704 in
FLAG -208 96 d
FLAG 288 272 0
SYMBOL voltage -800 -432 R0
WINDOW 123 0 0 Left 2
WINDOW 39 0 0 Left 2
WINDOW 0 48 32 Left 2
WINDOW 3 48 73 Left 2
SYMATTR InstName V1
SYMATTR Value 10
SYMBOL cap 560 -368 R0
WINDOW 0 -57 7 Left 2
WINDOW 3 -60 42 Left 2
SYMATTR InstName C1
SYMATTR Value 33µ
SYMBOL res 720 -336 R0
SYMATTR InstName R8
SYMATTR Value 1
SYMBOL ind2 224 -384 R270
WINDOW 0 32 56 VTop 2
WINDOW 3 5 56 VBottom 2
SYMATTR InstName L1
SYMATTR Value 10µ
SYMATTR Type ind
SYMBOL res 464 -416 R90
WINDOW 0 0 56 VBottom 2
WINDOW 3 32 56 VTop 2
SYMATTR InstName R1
SYMATTR Value 0.05
SYMBOL res 560 -304 R0
SYMATTR InstName R3
SYMATTR Value 0.1
SYMBOL Control\\sawtooth -432 -432 R0
WINDOW 3 1 100 Bottom 2
WINDOW 123 -2 66 Bottom 2
SYMATTR Value2 f=200k
SYMATTR InstName U2
SYMBOL Control\\comp -224 -528 R0
WINDOW 3 -10 38 Left 2
WINDOW 123 -7 65 Left 2
SYMATTR Value Vhigh=1
SYMATTR Value2 Vlow=0
SYMATTR InstName U3
SYMBOL Control\\idiode 160 -256 R180
WINDOW 0 -42 64 Left 2
WINDOW 38 -78 30 Left 2
WINDOW 3 54 36 Left 2
WINDOW 123 45 6 Left 2
SYMATTR InstName U7
SYMBOL voltage 288 144 M0
WINDOW 123 0 0 Left 0
WINDOW 39 0 0 Left 0
WINDOW 0 -107 32 Left 2
WINDOW 3 -69 70 Left 2
SYMATTR InstName Vref1
SYMATTR Value 5
SYMBOL res 160 -64 R90
WINDOW 0 0 56 VBottom 2
WINDOW 3 32 56 VTop 2
SYMATTR InstName R2
SYMATTR Value 1.81k
SYMBOL cap 288 -64 R90
WINDOW 0 0 32 VBottom 2
WINDOW 3 32 32 VTop 2
SYMATTR InstName C2
SYMATTR Value 10n
SYMBOL res 528 16 R90
WINDOW 0 0 56 VBottom 2
WINDOW 3 32 56 VTop 2
SYMATTR InstName R4
SYMATTR Value 1.81k
SYMBOL MyOpamp 96 96 R180
WINDOW 39 57 -98 Center 2
WINDOW 40 52 -66 Center 2
WINDOW 0 16 28 Left 2
WINDOW 38 15 -34 Left 2
SYMATTR SpiceLine2 Ao=1e6 FBW=10e6
SYMATTR InstName U5
SYMBOL Control\\limiter -272 96 R180
WINDOW 0 19 44 Bottom 2
WINDOW 38 38 -16 Bottom 2
WINDOW 3 39 -42 Bottom 2
WINDOW 123 40 -70 Bottom 2
SYMATTR InstName U8
SYMATTR Value vth=0.8
SYMBOL nmos 96 -608 R0
SYMATTR InstName M1
SYMATTR Value IRFZ48Z
SYMBOL Control\\driver -48 -528 R0
WINDOW 3 41 44 Bottom 2
SYMATTR Value k=15
SYMATTR InstName U4
SYMBOL voltage -800 -592 R0
WINDOW 3 17 96 Left 2
WINDOW 123 0 0 Left 0
WINDOW 39 0 0 Left 0
SYMATTR InstName V2
SYMATTR Value SINE(0 1 {Freq})
TEXT 912 -240 Left 2 !.measure Aavg              avg       V(out)                                                                ; average output voltage\n.measure Bavg              avg       V(in)                                                                   ; average input signal\n.measure Are                  avg       2*(V(out)-Aavg)*cos(360*Freq*time)      ; A real part\n.measure Aim                 avg       2*(V(out)-Aavg)*sin(360*Freq*time)        ; A imag part\n.measure Bre                  avg       2*(V(in)-Bavg)*cos(360*Freq*time)         ; B real part\n.measure Bim                 avg        2*(V(in)-Bavg)*sin(360*Freq*time)          ; B imag part\n.measure Amag             param   hypot(Are,Aim)                                              ; A magnitude\n.measure Bmag             param   hypot(Bre,Bim)                                              ; B magnitude\n.measure Aphi                param   atan2(Aim, Are)                                             ; A phase\n.measure Bphi                param   atan2(Bim, Bre)                                             ; B phase\n.measure GainMag       param    20*log10(Amag/Bmag)                              ; Gain magnitude\n.measure GainPhi          param    Bphi - Aphi                                                       ; Gain phase
TEXT 1392 -392 Left 2 !.save V(out) V(in)\n.option numdgt=15   ; double precision for data\n.option nomarch       ; do not plot marching waveforms
TEXT 912 -344 Left 2 !.step dec param Freq 200 200k 30
TEXT 904 -504 Left 2 !.param t0=1m\n.tran 0 {t0+5/Freq} {t0} 0.1u uic
TEXT 904 -416 Left 2 !.options reltol=1m
