Version 4
SHEET 1 2228 820
WIRE 112 -368 -64 -368
WIRE 208 -368 112 -368
WIRE -64 -320 -64 -368
WIRE -64 -176 -64 -240
WIRE -432 -96 -464 -96
WIRE -240 -96 -432 -96
WIRE -32 -96 -160 -96
WIRE 0 -96 -32 -96
WIRE 128 -96 0 -96
WIRE 256 -96 208 -96
WIRE 400 -96 336 -96
WIRE 496 -96 400 -96
WIRE 544 -96 496 -96
WIRE 656 -96 544 -96
WIRE -464 -16 -464 -96
WIRE 400 -16 400 -96
WIRE 544 32 544 -96
WIRE -32 64 -32 -96
WIRE 400 96 400 48
WIRE -464 112 -464 64
WIRE -464 256 -464 192
WIRE -32 256 -32 144
WIRE -32 256 -464 256
WIRE 400 256 400 176
WIRE 400 256 -32 256
WIRE 544 256 544 112
WIRE 544 256 400 256
WIRE -464 304 -464 256
WIRE 128 400 80 400
WIRE 288 400 208 400
WIRE 416 400 352 400
WIRE 416 480 416 400
WIRE 496 480 416 480
WIRE 656 480 656 -96
WIRE 656 480 576 480
WIRE 416 528 416 480
WIRE 416 528 192 528
WIRE -304 544 -336 544
WIRE 80 544 80 400
WIRE 80 544 -304 544
WIRE 128 544 80 544
WIRE 352 560 192 560
WIRE 352 608 352 560
WIRE 352 720 352 688
FLAG -464 304 0
FLAG 496 -96 out
FLAG 0 -96 sq
FLAG -432 -96 b
FLAG -64 -176 0
FLAG 112 -368 in
FLAG -304 544 d
FLAG 352 720 0
SYMBOL cap 384 -16 R0
SYMATTR InstName C1
SYMATTR Value 33µ
SYMBOL voltage -464 96 R0
WINDOW 123 0 0 Left 0
WINDOW 39 0 0 Left 0
WINDOW 0 51 39 Left 2
WINDOW 3 49 69 Left 2
SYMATTR InstName V1
SYMATTR Value 10
SYMBOL res 528 16 R0
SYMATTR InstName R1
SYMATTR Value 1
SYMBOL res 384 80 R0
SYMATTR InstName R2
SYMATTR Value 0.1
SYMBOL res 352 -112 R90
WINDOW 0 0 56 VBottom 2
WINDOW 3 32 56 VTop 2
SYMATTR InstName R3
SYMATTR Value 0.05
SYMBOL Misc\\Gpoly -144 -96 R90
WINDOW 0 62 56 VBottom 2
WINDOW 3 62 55 VTop 2
SYMATTR InstName Gs
SYMATTR Value value = {v(d)*i(L1)}
SYMBOL Misc\\Epoly -32 48 R0
WINDOW 0 48 44 Left 2
WINDOW 3 41 72 Left 2
SYMATTR InstName Ed
SYMATTR Value value={v(d)*V(b)}
SYMBOL ind 112 -80 R270
WINDOW 0 32 56 VTop 2
WINDOW 3 5 56 VBottom 2
SYMATTR InstName L1
SYMATTR Value 10µ
SYMBOL Misc\\Epoly -64 -336 R0
WINDOW 0 48 44 Left 2
WINDOW 3 41 72 Left 2
SYMATTR InstName Eb
SYMATTR Value value={V(b)}
SYMBOL voltage 352 592 M0
WINDOW 123 0 0 Left 0
WINDOW 39 0 0 Left 0
WINDOW 0 -107 32 Left 2
WINDOW 3 -69 70 Left 2
SYMATTR InstName Vref1
SYMATTR Value 5
SYMBOL res 224 384 R90
WINDOW 0 0 56 VBottom 2
WINDOW 3 32 56 VTop 2
SYMATTR InstName R4
SYMATTR Value 1.81k
SYMBOL cap 352 384 R90
WINDOW 0 0 32 VBottom 2
WINDOW 3 32 32 VTop 2
SYMATTR InstName C2
SYMATTR Value 10n
SYMBOL res 592 464 R90
WINDOW 0 0 56 VBottom 2
WINDOW 3 32 56 VTop 2
SYMATTR InstName R5
SYMATTR Value 1.81k
SYMBOL MyOpamp 160 544 R180
WINDOW 39 57 -98 Center 2
WINDOW 40 52 -66 Center 2
WINDOW 0 16 28 Left 2
WINDOW 38 15 -34 Left 2
SYMATTR SpiceLine2 Ao=1e6 FBW=10e6
SYMATTR InstName U2
SYMBOL voltage -464 -32 R0
WINDOW 123 0 0 Left 0
WINDOW 39 0 0 Left 0
SYMATTR InstName V2
SYMATTR Value SINE(0 1 {Freq})
TEXT 728 -96 Left 2 !.param t0=1m\n.tran 0 {t0+5/Freq} {t0} 0.1u
TEXT 728 -24 Left 2 !.options reltol=1m
TEXT 728 184 Left 2 !.measure Aavg              avg       V(out)                                                                ; average output voltage\n.measure Bavg              avg       V(in)                                                                   ; average input signal\n.measure Are                  avg       2*(V(out)-Aavg)*cos(360*Freq*time)      ; A real part\n.measure Aim                 avg       2*(V(out)-Aavg)*sin(360*Freq*time)        ; A imag part\n.measure Bre                  avg       2*(V(in)-Bavg)*cos(360*Freq*time)         ; B real part\n.measure Bim                 avg        2*(V(in)-Bavg)*sin(360*Freq*time)          ; B imag part\n.measure Amag             param   hypot(Are,Aim)                                              ; A magnitude\n.measure Bmag             param   hypot(Bre,Bim)                                              ; B magnitude\n.measure Aphi                param   atan2(Aim, Are)                                             ; A phase\n.measure Bphi                param   atan2(Bim, Bre)                                             ; B phase\n.measure GainMag       param    20*log10(Amag/Bmag)                              ; Gain magnitude\n.measure GainPhi          param    Bphi - Aphi                                                       ; Gain phase
TEXT 1176 -104 Left 2 !.save V(out) V(in)\n.option numdgt=15   ; double precision for data\n.option nomarch       ; do not plot marching waveforms
TEXT 728 64 Left 2 !.step dec param Freq 100 200k 25
